test/test_files/validation_tests/case33bw_res.m
function mpc = case33bw_res
%CASE33BW_RES

%% MATPOWER Case Format : Version 2
mpc.version = '2';

%%-----  Power Flow Data  -----%%
%% system MVA base
mpc.baseMVA = 100;

%% bus data
%    bus_i    type    Pd    Qd    Gs    Bs    area    Vm    Va    baseKV    zone    Vmax    Vmin
mpc.bus = [
    1    3    0    0    0    0    1    1    0    12.66    1    1    1;
    2    1    0.1    0.06    0    0    1    0.99703226    0.0144814136    12.66    1    1.1    0.9;
    3    1    0.09    0.04    0    0    1    0.982937984    0.0960415781    12.66    1    1.1    0.9;
    4    1    0.12    0.08    0    0    1    0.975456414    0.161651443    12.66    1    1.1    0.9;
    5    1    0.06    0.03    0    0    1    0.968059233    0.228285355    12.66    1    1.1    0.9;
    6    1    0.06    0.02    0    0    1    0.949658179    0.133853255    12.66    1    1.1    0.9;
    7    1    0.2    0.1    0    0    1    0.946172615    -0.0964740289    12.66    1    1.1    0.9;
    8    1    0.2    0.1    0    0    1    0.941328439    -0.0604030304    12.66    1    1.1    0.9;
    9    1    0.06    0.02    0    0    1    0.935059374    -0.133484473    12.66    1    1.1    0.9;
    10    1    0.06    0.02    0    0    1    0.929244424    -0.196014019    12.66    1    1.1    0.9;
    11    1    0.045    0.03    0    0    1    0.928384419    -0.188761056    12.66    1    1.1    0.9;
    12    1    0.06    0.035    0    0    1    0.926884839    -0.177268954    12.66    1    1.1    0.9;
    13    1    0.06    0.035    0    0    1    0.92077175    -0.268586499    12.66    1    1.1    0.9;
    14    1    0.12    0.08    0    0    1    0.918504995    -0.347267455    12.66    1    1.1    0.9;
    15    1    0.06    0.01    0    0    1    0.917092682    -0.384950205    12.66    1    1.1    0.9;
    16    1    0.06    0.02    0    0    1    0.915724762    -0.408204882    12.66    1    1.1    0.9;
    17    1    0.06    0.02    0    0    1    0.913697548    -0.485473106    12.66    1    1.1    0.9;
    18    1    0.09    0.04    0    0    1    0.913090482    -0.495062672    12.66    1    1.1    0.9;
    19    1    0.09    0.04    0    0    1    0.996503896    0.00365089527    12.66    1    1.1    0.9;
    20    1    0.09    0.04    0    0    1    0.9929263    -0.0633276834    12.66    1    1.1    0.9;
    21    1    0.09    0.04    0    0    1    0.992221796    -0.0826855622    12.66    1    1.1    0.9;
    22    1    0.09    0.04    0    0    1    0.991584377    -0.103033133    12.66    1    1.1    0.9;
    23    1    0.09    0.05    0    0    1    0.979352258    0.0650799562    12.66    1    1.1    0.9;
    24    1    0.42    0.2    0    0    1    0.972681101    -0.02365393    12.66    1    1.1    0.9;
    25    1    0.42    0.2    0    0    1    0.969356113    -0.0673545483    12.66    1    1.1    0.9;
    26    1    0.06    0.025    0    0    1    0.947728911    0.173309605    12.66    1    1.1    0.9;
    27    1    0.06    0.025    0    0    1    0.945165165    0.229463145    12.66    1    1.1    0.9;
    28    1    0.06    0.02    0    0    1    0.933725582    0.31240911    12.66    1    1.1    0.9;
    29    1    0.12    0.07    0    0    1    0.92550748    0.390314419    12.66    1    1.1    0.9;
    30    1    0.2    0.6    0    0    1    0.92195006    0.495585552    12.66    1    1.1    0.9;
    31    1    0.15    0.07    0    0    1    0.917788889    0.411177667    12.66    1    1.1    0.9;
    32    1    0.21    0.1    0    0    1    0.916873468    0.388134938    12.66    1    1.1    0.9;
    33    1    0.06    0.04    0    0    1    0.916589824    0.380405046    12.66    1    1.1    0.9;
];

%% generator data
%    bus    Pg    Qg    Qmax    Qmin    Vg    mBase    status    Pmax    Pmin    Pc1    Pc2    Qc1min    Qc1max    Qc2min    Qc2max    ramp_agc    ramp_10    ramp_30    ramp_q    apf
mpc.gen = [
    1    3.91767707    2.43514093    10    -10    1    100    1    10    0    0    0    0    0    0    0    0    0    0    0    0;
];

%% branch data
%    fbus    tbus    r    x    b    rateA    rateB    rateC    ratio    angle    status    angmin    angmax    Pf    Qf    Pt    Qt
mpc.branch = [
    1    2    0.0575259116    0.0293244886    0    0    0    0    0    0    1    -360    360    3.9177    2.4351    -3.9054    -2.4289;
    2    3    0.307595167    0.15666764    0    0    0    0    0    0    1    -360    360    3.4443    2.2078    -3.3925    -2.1814;
    3    4    0.228356656    0.116299674    0    0    0    0    0    0    1    -360    360    2.3629    1.6842    -2.3430    -1.6741;
    4    5    0.237777928    0.121103899    0    0    0    0    0    0    1    -360    360    2.2230    1.5941    -2.2043    -1.5845;
    5    6    0.510994811    0.441115179    0    0    0    0    0    0    1    -360    360    2.1443    1.5545    -2.1060    -1.5215;
    6    7    0.116798814    0.386084969    0    0    0    0    0    0    1    -360    360    1.0953    0.5279    -1.0934    -0.5216;
    7    8    0.44386045    0.146684835    0    0    0    0    0    0    1    -360    360    0.8934    0.4216    -0.8885    -0.4200;
    8    9    0.642643047    0.461704714    0    0    0    0    0    0    1    -360    360    0.6885    0.3200    -0.6843    -0.3170;
    9    10    0.651378001    0.461704714    0    0    0    0    0    0    1    -360    360    0.6243    0.2970    -0.6208    -0.2944;
    10    11    0.122663712    0.0405551438    0    0    0    0    0    0    1    -360    360    0.5608    0.2744    -0.5602    -0.2742;
    11    12    0.233597628    0.0772419507    0    0    0    0    0    0    1    -360    360    0.5152    0.2442    -0.5143    -0.2440;
    12    13    0.915922324    0.720633708    0    0    0    0    0    0    1    -360    360    0.4543    0.2090    -0.4517    -0.2069;
    13    14    0.337917936    0.444796338    0    0    0    0    0    0    1    -360    360    0.3917    0.1719    -0.3909    -0.1709;
    14    15    0.368739846    0.328184702    0    0    0    0    0    0    1    -360    360    0.2709    0.0909    -0.2706    -0.0906;
    15    16    0.465635443    0.340039282    0    0    0    0    0    0    1    -360    360    0.2106    0.0806    -0.2103    -0.0804;
    16    17    0.804239697    1.07377542    0    0    0    0    0    0    1    -360    360    0.1503    0.0604    -0.1501    -0.0600;
    17    18    0.456713311    0.358133116    0    0    0    0    0    0    1    -360    360    0.0901    0.0400    -0.0900    -0.0400;
    2    19    0.102323747    0.0976443077    0    0    0    0    0    0    1    -360    360    0.3611    0.1611    -0.3610    -0.1609;
    19    20    0.938508419    0.845668336    0    0    0    0    0    0    1    -360    360    0.2710    0.1209    -0.2701    -0.1202;
    20    21    0.255497406    0.298485858    0    0    0    0    0    0    1    -360    360    0.1801    0.0802    -0.1800    -0.0801;
    21    22    0.442300637    0.584805173    0    0    0    0    0    0    1    -360    360    0.0900    0.0401    -0.0900    -0.0400;
    3    23    0.28151509    0.192356167    0    0    0    0    0    0    1    -360    360    0.9396    0.4572    -0.9364    -0.4551;
    23    24    0.560284909    0.442425422    0    0    0    0    0    0    1    -360    360    0.8464    0.4051    -0.8413    -0.4010;
    24    25    0.559037059    0.43743402    0    0    0    0    0    0    1    -360    360    0.4213    0.2010    -0.4200    -0.2000;
    6    26    0.126656834    0.0645138749    0    0    0    0    0    0    1    -360    360    0.9508    0.9736    -0.9482    -0.9723;
    26    27    0.177319567    0.0902819893    0    0    0    0    0    0    1    -360    360    0.8882    0.9473    -0.8848    -0.9456;
    27    28    0.660736881    0.582559042    0    0    0    0    0    0    1    -360    360    0.8248    0.9206    -0.8135    -0.9107;
    28    29    0.501760717    0.437122057    0    0    0    0    0    0    1    -360    360    0.7535    0.8907    -0.7457    -0.8838;
    29    30    0.316642084    0.161284687    0    0    0    0    0    0    1    -360    360    0.6257    0.8138    -0.6218    -0.8118;
    30    31    0.607952801    0.600840053    0    0    0    0    0    0    1    -360    360    0.4218    0.2118    -0.4202    -0.2103;
    31    32    0.193728802    0.225798562    0    0    0    0    0    0    1    -360    360    0.2702    0.1403    -0.2700    -0.1400;
    32    33    0.212758523    0.330805188    0    0    0    0    0    0    1    -360    360    0.0600    0.0400    -0.0600    -0.0400;
    21    8    1.24785058    1.24785058    0    0    0    0    0    0    0    -360    360    0.0000    0.0000    0.0000    0.0000;
    9    15    1.24785058    1.24785058    0    0    0    0    0    0    0    -360    360    0.0000    0.0000    0.0000    0.0000;
    12    22    1.24785058    1.24785058    0    0    0    0    0    0    0    -360    360    0.0000    0.0000    0.0000    0.0000;
    18    33    0.311962644    0.311962644    0    0    0    0    0    0    0    -360    360    0.0000    0.0000    0.0000    0.0000;
    25    29    0.311962644    0.311962644    0    0    0    0    0    0    0    -360    360    0.0000    0.0000    0.0000    0.0000;
];

%%-----  OPF Data  -----%%
%% generator cost data
%    1    startup    shutdown    n    x1    y1    ...    xn    yn
%    2    startup    shutdown    n    c(n-1)    ...    c0
mpc.gencost = [
    2    0    0    3    0    20    0;
];
